202
a6yext: align 1, 84; : edge 1, 84
Au 1.438962 1.438962 0.000000
Au 4.316887 1.438962 0.000000
Au 4.316887 4.316887 0.000000
Au 1.438962 4.316887 0.000000
Au 2.877925 0.000000 2.035000
Au 2.877925 2.877925 2.035000
Au 1.438962 1.438962 4.070000
Au 4.316887 1.438962 4.070000
Au 5.755849 2.877925 2.035000
Au 4.316887 4.316887 4.070000
Au 0.000000 2.877925 2.035000
Au 1.438962 4.316887 4.070000
Au 2.877925 5.755849 2.035000
Au 2.877925 0.000000 6.105000
Au 2.877925 2.877925 6.105000
Au 1.438962 1.438962 8.140000
Au 4.316887 1.438962 8.140000
Au 5.755849 2.877925 6.105000
Au 4.316887 4.316887 8.140000
Au 0.000000 2.877925 6.105000
Au 1.438962 4.316887 8.140000
Au 2.877925 5.755849 6.105000
Au 2.877925 0.000000 10.175000
Au 2.877925 2.877925 10.175000
Au 5.755849 2.877925 10.175000
Au 0.000000 2.877925 10.175000
Au 2.877925 5.755849 10.175000
Au 1.438962 1.438962 12.210000
Au 4.316887 1.438962 12.210000
Au 4.316887 4.316887 12.210000
Au 1.438962 4.316887 12.210000
Au 2.877925 0.000000 14.245000
Au 2.877925 2.877925 14.245000
Au 1.438962 1.438962 16.280000
Au 4.316887 1.438962 16.280000
Au 5.755849 2.877925 14.245000
Au 4.316887 4.316887 16.280000
Au 0.000000 2.877925 14.245000
Au 1.438962 4.316887 16.280000
Au 2.877925 5.755849 14.245000
Au 2.877925 0.000000 18.315000
Au 2.877925 2.877925 18.315000
Au 1.438962 1.438962 20.350000
Au 4.316887 1.438962 20.350000
Au 5.755849 2.877925 18.315000
Au 4.316887 4.316887 20.350000
Au 0.000000 2.877925 18.315000
Au 1.438962 4.316887 20.350000
Au 2.877925 5.755849 18.315000
Au 2.877925 0.000000 22.385000
Au 2.877925 2.877925 22.385000
Au 5.755849 2.877925 22.385000
Au 0.000000 2.877925 22.385000
Au 2.877925 5.755849 22.385000
Au 1.438962 1.438962 24.419999
Au 4.316887 1.438962 24.419999
Au 4.316887 4.316887 24.419999
Au 1.438962 4.316887 24.419999
Au 2.877925 2.877925 26.454999
Au 2.877925 2.877925 29.332923
N 2.029801 2.523664 31.265482
H 1.438092 1.720904 31.446353
C 2.339339 3.335033 32.429368
H 3.407161 3.579412 32.405677
C 2.032037 2.476826 33.668071
O 1.294269 1.487106 33.595676
C 1.530211 4.646859 32.454907
H 1.797720 5.258066 33.322925
H 1.744537 5.218289 31.548058
H 0.456799 4.434073 32.494088
N 2.591987 2.899907 34.818275
H 3.182767 3.724974 34.852132
C 2.335762 2.276875 36.107864
H 1.273455 2.015589 36.160477
C 2.667200 3.330443 37.178881
O 3.399890 4.292495 36.921040
C 3.177177 1.002098 36.310663
H 2.946941 0.529599 37.270923
H 2.952813 0.291294 35.511150
H 4.245385 1.240506 36.283866
N 2.135928 3.104039 38.394834
H 1.552318 2.293809 38.579840
C 2.425992 3.922029 39.562808
H 3.491968 4.173961 39.553549
C 2.109415 3.052043 40.792455
O 1.392467 2.049161 40.695065
C 1.601897 5.223538 39.577317
H 1.852015 5.834758 40.450191
H 1.821013 5.800632 38.675256
H 0.530803 4.998302 39.602690
N 2.636940 3.478028 41.955073
H 3.210346 4.314624 42.007931
C 2.375508 2.834803 43.234014
H 1.314585 2.565734 43.276195
C 2.691507 3.876751 44.321349
O 3.396891 4.861726 44.074651
C 3.224815 1.563402 43.424704
H 2.990520 1.075474 44.376098
H 3.011961 0.862260 42.613712
H 4.291368 1.809960 43.409950
N 2.178642 3.614081 45.537880
H 1.620805 2.783905 45.713533
C 2.467670 4.412201 46.719910
H 3.523538 4.701804 46.691529
C 2.211156 3.500110 47.932640
O 1.517521 2.482069 47.828163
C 1.599823 5.683227 46.787761
H 1.851049 6.281103 47.669557
H 1.776128 6.289784 45.895602
H 0.537987 5.420469 46.833259
N 2.762332 3.906789 49.091763
H 3.325226 4.749659 49.148139
C 2.563364 3.211806 50.354690
H 1.516931 2.894068 50.412761
C 2.864618 4.227418 51.467978
O 3.545747 5.233936 51.249420
C 3.473995 1.974816 50.481539
H 3.292733 1.449934 51.424657
H 3.266371 1.288688 49.656461
H 4.527315 2.270260 50.441051
N 2.374801 3.916159 52.687027
H 1.794349 3.096600 52.824495
C 2.655959 4.714708 53.869844
H 3.679738 5.090441 53.803219
C 2.529728 3.789741 55.071980
O 1.828064 2.796777 55.088412
C 1.678374 5.929030 53.978725
H 1.703562 6.408776 52.994624
H 0.664590 5.539569 54.124167
C 2.026023 6.933975 55.053368
C 1.310656 6.997679 56.254901
H 0.481427 6.314759 56.423811
C 3.083630 7.838948 54.869999
H 3.649890 7.820978 53.941291
C 1.633735 7.925503 57.246189
H 1.061223 7.960115 58.170470
C 3.422250 8.768459 55.849252
H 4.239401 9.467721 55.699440
C 2.695428 8.813888 57.045643
O 3.066538 9.748250 57.973082
H 2.486276 9.678318 58.748741
O 3.254904 4.209214 56.117189
Au 2.877925 2.877925 57.749719
Au 2.877925 2.877925 60.627643
Au 1.438962 4.316887 62.662643
Au 4.316887 4.316887 62.662643
Au 4.316887 1.438962 62.662643
Au 1.438962 1.438962 62.662643
Au 2.877925 5.755849 64.697642
Au 0.000000 2.877925 64.697642
Au 5.755849 2.877925 64.697642
Au 2.877925 2.877925 64.697642
Au 2.877925 0.000000 64.697642
Au 2.877925 5.755849 68.767642
Au 1.438962 4.316887 66.732642
Au 0.000000 2.877925 68.767642
Au 4.316887 4.316887 66.732642
Au 5.755849 2.877925 68.767642
Au 4.316887 1.438962 66.732642
Au 1.438962 1.438962 66.732642
Au 2.877925 2.877925 68.767642
Au 2.877925 0.000000 68.767642
Au 2.877925 5.755849 72.837642
Au 1.438962 4.316887 70.802642
Au 0.000000 2.877925 72.837642
Au 4.316887 4.316887 70.802642
Au 5.755849 2.877925 72.837642
Au 4.316887 1.438962 70.802642
Au 1.438962 1.438962 70.802642
Au 2.877925 2.877925 72.837642
Au 2.877925 0.000000 72.837642
Au 1.438962 4.316887 74.872642
Au 4.316887 4.316887 74.872642
Au 4.316887 1.438962 74.872642
Au 1.438962 1.438962 74.872642
Au 2.877925 5.755849 76.907642
Au 0.000000 2.877925 76.907642
Au 5.755849 2.877925 76.907642
Au 2.877925 2.877925 76.907642
Au 2.877925 0.000000 76.907642
Au 2.877925 5.755849 80.977642
Au 1.438962 4.316887 78.942642
Au 0.000000 2.877925 80.977642
Au 4.316887 4.316887 78.942642
Au 5.755849 2.877925 80.977642
Au 4.316887 1.438962 78.942642
Au 1.438962 1.438962 78.942642
Au 2.877925 2.877925 80.977642
Au 2.877925 0.000000 80.977642
Au 2.877925 5.755849 85.047642
Au 1.438962 4.316887 83.012642
Au 0.000000 2.877925 85.047642
Au 4.316887 4.316887 83.012642
Au 5.755849 2.877925 85.047642
Au 4.316887 1.438962 83.012642
Au 1.438962 1.438962 83.012642
Au 2.877925 2.877925 85.047642
Au 2.877925 0.000000 85.047642
Au 1.438962 4.316887 87.082642
Au 4.316887 4.316887 87.082642
Au 4.316887 1.438962 87.082642
Au 1.438962 1.438962 87.082642
