193
a6dext: align 1, 75; : edge 1, 75
Au 1.438962 1.438962 0.000000
Au 4.316887 1.438962 0.000000
Au 4.316887 4.316887 0.000000
Au 1.438962 4.316887 0.000000
Au 2.877925 0.000000 2.035000
Au 2.877925 2.877925 2.035000
Au 1.438962 1.438962 4.070000
Au 4.316887 1.438962 4.070000
Au 5.755849 2.877925 2.035000
Au 4.316887 4.316887 4.070000
Au 0.000000 2.877925 2.035000
Au 1.438962 4.316887 4.070000
Au 2.877925 5.755849 2.035000
Au 2.877925 0.000000 6.105000
Au 2.877925 2.877925 6.105000
Au 1.438962 1.438962 8.140000
Au 4.316887 1.438962 8.140000
Au 5.755849 2.877925 6.105000
Au 4.316887 4.316887 8.140000
Au 0.000000 2.877925 6.105000
Au 1.438962 4.316887 8.140000
Au 2.877925 5.755849 6.105000
Au 2.877925 0.000000 10.175000
Au 2.877925 2.877925 10.175000
Au 5.755849 2.877925 10.175000
Au 0.000000 2.877925 10.175000
Au 2.877925 5.755849 10.175000
Au 1.438962 1.438962 12.210000
Au 4.316887 1.438962 12.210000
Au 4.316887 4.316887 12.210000
Au 1.438962 4.316887 12.210000
Au 2.877925 0.000000 14.245000
Au 2.877925 2.877925 14.245000
Au 1.438962 1.438962 16.280000
Au 4.316887 1.438962 16.280000
Au 5.755849 2.877925 14.245000
Au 4.316887 4.316887 16.280000
Au 0.000000 2.877925 14.245000
Au 1.438962 4.316887 16.280000
Au 2.877925 5.755849 14.245000
Au 2.877925 0.000000 18.315000
Au 2.877925 2.877925 18.315000
Au 1.438962 1.438962 20.350000
Au 4.316887 1.438962 20.350000
Au 5.755849 2.877925 18.315000
Au 4.316887 4.316887 20.350000
Au 0.000000 2.877925 18.315000
Au 1.438962 4.316887 20.350000
Au 2.877925 5.755849 18.315000
Au 2.877925 0.000000 22.385000
Au 2.877925 2.877925 22.385000
Au 5.755849 2.877925 22.385000
Au 0.000000 2.877925 22.385000
Au 2.877925 5.755849 22.385000
Au 1.438962 1.438962 24.419999
Au 4.316887 1.438962 24.419999
Au 4.316887 4.316887 24.419999
Au 1.438962 4.316887 24.419999
Au 2.877925 2.877925 26.454999
Au 2.877925 2.877925 29.332923
N 2.450786 1.748964 31.100010
H 2.093683 0.805112 31.112363
C 2.741653 2.517749 32.293641
H 3.802359 2.766641 32.256120
C 2.437865 1.714815 33.550420
O 2.002752 0.564776 33.583000
C 1.906148 3.793814 32.342598
H 2.146317 4.349473 33.249753
H 2.129761 4.407447 31.469875
H 0.847662 3.533835 32.344507
N 2.732230 2.492843 34.762410
H 3.088168 3.433616 34.680043
C 2.526614 1.949386 36.090103
H 1.467288 1.704140 36.168427
C 2.909126 2.960392 37.161566
O 3.338549 4.095393 36.960703
C 3.371149 0.697187 36.308203
H 3.195643 0.312439 37.313457
H 3.093235 -0.059972 35.574943
H 4.425807 0.947050 36.193097
N 2.701307 2.411112 38.509158
H 2.346290 1.472774 38.618765
C 2.992175 3.179898 39.702788
H 4.052881 3.428791 39.665268
C 2.688388 2.376964 40.959567
O 2.253274 1.226926 40.992148
C 2.156670 4.455964 39.751745
H 2.396839 5.011624 40.658901
H 2.380284 5.069597 38.879022
H 1.098184 4.195985 39.753654
N 2.982752 3.154992 42.171559
H 3.338688 4.095765 42.089192
C 2.777137 2.611534 43.499250
H 1.717809 2.366289 43.577574
C 3.159647 3.622542 44.570715
O 3.589070 4.757542 44.369850
C 3.621670 1.359336 43.717350
H 3.446166 0.974588 44.722603
H 3.343756 0.602179 42.984092
H 4.676329 1.609200 43.602245
N 2.951828 3.073262 45.918305
H 2.596811 2.134924 46.027911
C 3.242696 3.842048 47.111936
H 4.303403 4.090940 47.074415
C 2.938909 3.039115 48.368715
O 2.503796 1.889074 48.401295
C 2.407192 5.118113 47.160893
H 2.647360 5.673772 48.068048
H 2.630804 5.731746 46.288170
H 1.348706 4.858133 47.162802
N 3.233273 3.817141 49.580706
H 3.589211 4.757914 49.498339
C 3.027658 3.273684 50.908398
H 1.968331 3.028438 50.986721
C 3.410169 4.284691 51.979862
O 3.839592 5.419692 51.778997
C 3.872192 2.021485 51.126498
H 3.696687 1.636737 52.131751
H 3.594277 1.264327 50.393239
H 4.926851 2.271348 51.011392
N 3.202351 3.735412 53.327453
H 2.847334 2.797074 53.437059
C 3.493218 4.504197 54.521084
H 4.553924 4.753089 54.483563
C 3.189431 3.701263 55.777863
O 2.747744 2.533850 55.693827
C 2.657713 5.780261 54.570041
H 2.881326 6.393895 53.697318
H 1.599228 5.520283 54.571950
C 2.993977 6.558825 55.840230
O 3.926865 7.402441 55.769088
O 2.312586 6.303637 56.868847
O 3.305062 4.006885 56.964701
Au 2.877925 2.877925 58.731789
Au 2.877925 2.877925 61.609713
Au 1.438962 4.316887 63.644713
Au 4.316887 4.316887 63.644713
Au 4.316887 1.438962 63.644713
Au 1.438962 1.438962 63.644713
Au 2.877925 5.755849 65.679712
Au 0.000000 2.877925 65.679712
Au 5.755849 2.877925 65.679712
Au 2.877925 2.877925 65.679712
Au 2.877925 0.000000 65.679712
Au 2.877925 5.755849 69.749712
Au 1.438962 4.316887 67.714712
Au 0.000000 2.877925 69.749712
Au 4.316887 4.316887 67.714712
Au 5.755849 2.877925 69.749712
Au 4.316887 1.438962 67.714712
Au 1.438962 1.438962 67.714712
Au 2.877925 2.877925 69.749712
Au 2.877925 0.000000 69.749712
Au 2.877925 5.755849 73.819712
Au 1.438962 4.316887 71.784712
Au 0.000000 2.877925 73.819712
Au 4.316887 4.316887 71.784712
Au 5.755849 2.877925 73.819712
Au 4.316887 1.438962 71.784712
Au 1.438962 1.438962 71.784712
Au 2.877925 2.877925 73.819712
Au 2.877925 0.000000 73.819712
Au 1.438962 4.316887 75.854712
Au 4.316887 4.316887 75.854712
Au 4.316887 1.438962 75.854712
Au 1.438962 1.438962 75.854712
Au 2.877925 5.755849 77.889712
Au 0.000000 2.877925 77.889712
Au 5.755849 2.877925 77.889712
Au 2.877925 2.877925 77.889712
Au 2.877925 0.000000 77.889712
Au 2.877925 5.755849 81.959712
Au 1.438962 4.316887 79.924712
Au 0.000000 2.877925 81.959712
Au 4.316887 4.316887 79.924712
Au 5.755849 2.877925 81.959712
Au 4.316887 1.438962 79.924712
Au 1.438962 1.438962 79.924712
Au 2.877925 2.877925 81.959712
Au 2.877925 0.000000 81.959712
Au 2.877925 5.755849 86.029712
Au 1.438962 4.316887 83.994712
Au 0.000000 2.877925 86.029712
Au 4.316887 4.316887 83.994712
Au 5.755849 2.877925 86.029712
Au 4.316887 1.438962 83.994712
Au 1.438962 1.438962 83.994712
Au 2.877925 2.877925 86.029712
Au 2.877925 0.000000 86.029712
Au 1.438962 4.316887 88.064712
Au 4.316887 4.316887 88.064712
Au 4.316887 1.438962 88.064712
Au 1.438962 1.438962 88.064712
