191
a7ext: align 73, 1; : edge 73, 1
Au 1.438962 1.438962 0.000000
Au 4.316887 1.438962 0.000000
Au 4.316887 4.316887 0.000000
Au 1.438962 4.316887 0.000000
Au 2.877925 0.000000 2.035000
Au 2.877925 2.877925 2.035000
Au 1.438962 1.438962 4.070000
Au 4.316887 1.438962 4.070000
Au 5.755849 2.877925 2.035000
Au 4.316887 4.316887 4.070000
Au 0.000000 2.877925 2.035000
Au 1.438962 4.316887 4.070000
Au 2.877925 5.755849 2.035000
Au 2.877925 0.000000 6.105000
Au 2.877925 2.877925 6.105000
Au 1.438962 1.438962 8.140000
Au 4.316887 1.438962 8.140000
Au 5.755849 2.877925 6.105000
Au 4.316887 4.316887 8.140000
Au 0.000000 2.877925 6.105000
Au 1.438962 4.316887 8.140000
Au 2.877925 5.755849 6.105000
Au 2.877925 0.000000 10.175000
Au 2.877925 2.877925 10.175000
Au 5.755849 2.877925 10.175000
Au 0.000000 2.877925 10.175000
Au 2.877925 5.755849 10.175000
Au 1.438962 1.438962 12.210000
Au 4.316887 1.438962 12.210000
Au 4.316887 4.316887 12.210000
Au 1.438962 4.316887 12.210000
Au 2.877925 0.000000 14.245000
Au 2.877925 2.877925 14.245000
Au 1.438962 1.438962 16.280000
Au 4.316887 1.438962 16.280000
Au 5.755849 2.877925 14.245000
Au 4.316887 4.316887 16.280000
Au 0.000000 2.877925 14.245000
Au 1.438962 4.316887 16.280000
Au 2.877925 5.755849 14.245000
Au 2.877925 0.000000 18.315000
Au 2.877925 2.877925 18.315000
Au 1.438962 1.438962 20.350000
Au 4.316887 1.438962 20.350000
Au 5.755849 2.877925 18.315000
Au 4.316887 4.316887 20.350000
Au 0.000000 2.877925 18.315000
Au 1.438962 4.316887 20.350000
Au 2.877925 5.755849 18.315000
Au 2.877925 0.000000 22.385000
Au 2.877925 2.877925 22.385000
Au 5.755849 2.877925 22.385000
Au 0.000000 2.877925 22.385000
Au 2.877925 5.755849 22.385000
Au 1.438962 1.438962 24.419999
Au 4.316887 1.438962 24.419999
Au 4.316887 4.316887 24.419999
Au 1.438962 4.316887 24.419999
Au 2.877925 2.877925 26.454999
Au 3.054698 3.132725 57.844575
N 2.205747 3.515184 55.917761
H 1.570282 4.289255 55.762025
C 2.571944 2.767659 54.727820
H 3.649736 2.573875 54.760706
C 2.241008 3.657476 53.518240
O 1.439581 4.594502 53.611154
C 1.827674 1.420878 54.636948
H 2.141168 0.855965 53.752991
H 2.051900 0.826820 55.526765
H 0.746201 1.583840 54.583144
N 2.855372 3.318672 52.367967
H 3.493902 2.530837 52.317789
C 2.586652 3.968649 51.094528
H 1.510500 4.160122 51.023660
C 3.012364 2.976935 49.997780
O 3.788967 2.047206 50.245822
C 3.344273 5.302892 50.955232
H 3.106104 5.791350 50.004918
H 3.053500 5.969821 51.771018
H 4.425299 5.135891 51.002224
N 2.509964 3.219517 48.772737
H 1.886488 4.001617 48.597128
C 2.877180 2.454823 47.590503
H 3.953869 2.256993 47.626259
C 2.551217 3.342667 46.376667
O 1.767559 4.294048 46.475204
C 2.121977 1.114327 47.511784
H 2.433233 0.541052 46.632745
H 2.339214 0.524245 48.405844
H 1.042274 1.286171 47.453935
N 3.147397 2.985376 45.224102
H 3.772118 2.186360 45.172352
C 2.879900 3.632428 43.948413
H 1.806242 3.839001 43.883051
C 3.283943 2.626194 42.856376
O 4.044880 1.684659 43.108418
C 3.656632 4.954050 43.796368
H 3.420051 5.439433 42.844147
H 3.380610 5.630941 44.609054
H 4.735244 4.771128 43.838177
N 2.781018 2.868866 41.631789
H 2.170648 3.660466 41.452691
C 3.128030 2.086860 40.454703
H 4.201401 1.870998 40.486056
C 2.810154 2.968636 39.234468
O 2.046737 3.936478 39.328445
C 2.349524 0.758750 40.393362
H 2.646023 0.171203 39.518626
H 2.561756 0.174165 41.292194
H 1.272630 0.948527 40.339670
N 3.390079 2.587370 38.080833
H 3.997531 1.775149 38.033774
C 3.123684 3.227017 36.801369
H 2.054772 3.459570 36.746792
C 3.488005 2.199581 35.716344
O 4.222589 1.238642 35.966549
C 3.931080 4.527451 36.625446
H 3.696238 5.009095 35.670893
H 3.679856 5.219199 37.433579
H 5.005221 4.318735 36.658187
N 2.978789 2.442035 34.491059
H 2.403136 3.258112 34.317195
C 3.308699 1.627294 33.331406
H 4.374560 1.378173 33.371743
C 3.064166 2.476494 32.091536
O 2.508226 3.557025 32.095189
C 2.496851 0.318373 33.276832
H 2.791503 -0.279422 32.410197
H 2.692581 -0.256123 34.185303
H 1.424876 0.530829 33.215910
O 3.516948 1.872431 30.982773
Au 3.054698 3.132725 29.316165
Au 2.877925 2.877925 60.705741
Au 1.438962 4.316887 62.740741
Au 4.316887 4.316887 62.740741
Au 4.316887 1.438962 62.740741
Au 1.438962 1.438962 62.740741
Au 2.877925 5.755849 64.775741
Au 0.000000 2.877925 64.775741
Au 5.755849 2.877925 64.775741
Au 2.877925 2.877925 64.775741
Au 2.877925 0.000000 64.775741
Au 2.877925 5.755849 68.845741
Au 1.438962 4.316887 66.810741
Au 0.000000 2.877925 68.845741
Au 4.316887 4.316887 66.810741
Au 5.755849 2.877925 68.845741
Au 4.316887 1.438962 66.810741
Au 1.438962 1.438962 66.810741
Au 2.877925 2.877925 68.845741
Au 2.877925 0.000000 68.845741
Au 2.877925 5.755849 72.915741
Au 1.438962 4.316887 70.880741
Au 0.000000 2.877925 72.915741
Au 4.316887 4.316887 70.880741
Au 5.755849 2.877925 72.915741
Au 4.316887 1.438962 70.880741
Au 1.438962 1.438962 70.880741
Au 2.877925 2.877925 72.915741
Au 2.877925 0.000000 72.915741
Au 1.438962 4.316887 74.950741
Au 4.316887 4.316887 74.950741
Au 4.316887 1.438962 74.950741
Au 1.438962 1.438962 74.950741
Au 2.877925 5.755849 76.985740
Au 0.000000 2.877925 76.985740
Au 5.755849 2.877925 76.985740
Au 2.877925 2.877925 76.985740
Au 2.877925 0.000000 76.985740
Au 2.877925 5.755849 81.055740
Au 1.438962 4.316887 79.020740
Au 0.000000 2.877925 81.055740
Au 4.316887 4.316887 79.020740
Au 5.755849 2.877925 81.055740
Au 4.316887 1.438962 79.020740
Au 1.438962 1.438962 79.020740
Au 2.877925 2.877925 81.055740
Au 2.877925 0.000000 81.055740
Au 2.877925 5.755849 85.125740
Au 1.438962 4.316887 83.090740
Au 0.000000 2.877925 85.125740
Au 4.316887 4.316887 83.090740
Au 5.755849 2.877925 85.125740
Au 4.316887 1.438962 83.090740
Au 1.438962 1.438962 83.090740
Au 2.877925 2.877925 85.125740
Au 2.877925 0.000000 85.125740
Au 1.438962 4.316887 87.160740
Au 4.316887 4.316887 87.160740
Au 4.316887 1.438962 87.160740
Au 1.438962 1.438962 87.160740
