203
a6kalpha: align 85, 2; : edge 85, 2
Au 1.438962 1.438962 0.000000
Au 4.316887 1.438962 0.000000
Au 4.316887 4.316887 0.000000
Au 1.438962 4.316887 0.000000
Au 2.877925 0.000000 2.035000
Au 2.877925 2.877925 2.035000
Au 1.438962 1.438962 4.070000
Au 4.316887 1.438962 4.070000
Au 5.755849 2.877925 2.035000
Au 4.316887 4.316887 4.070000
Au 0.000000 2.877925 2.035000
Au 1.438962 4.316887 4.070000
Au 2.877925 5.755849 2.035000
Au 2.877925 0.000000 6.105000
Au 2.877925 2.877925 6.105000
Au 1.438962 1.438962 8.140000
Au 4.316887 1.438962 8.140000
Au 5.755849 2.877925 6.105000
Au 4.316887 4.316887 8.140000
Au 0.000000 2.877925 6.105000
Au 1.438962 4.316887 8.140000
Au 2.877925 5.755849 6.105000
Au 2.877925 0.000000 10.175000
Au 2.877925 2.877925 10.175000
Au 5.755849 2.877925 10.175000
Au 0.000000 2.877925 10.175000
Au 2.877925 5.755849 10.175000
Au 1.438962 1.438962 12.210000
Au 4.316887 1.438962 12.210000
Au 4.316887 4.316887 12.210000
Au 1.438962 4.316887 12.210000
Au 2.877925 0.000000 14.245000
Au 2.877925 2.877925 14.245000
Au 1.438962 1.438962 16.280000
Au 4.316887 1.438962 16.280000
Au 5.755849 2.877925 14.245000
Au 4.316887 4.316887 16.280000
Au 0.000000 2.877925 14.245000
Au 1.438962 4.316887 16.280000
Au 2.877925 5.755849 14.245000
Au 2.877925 0.000000 18.315000
Au 2.877925 2.877925 18.315000
Au 1.438962 1.438962 20.350000
Au 4.316887 1.438962 20.350000
Au 5.755849 2.877925 18.315000
Au 4.316887 4.316887 20.350000
Au 0.000000 2.877925 18.315000
Au 1.438962 4.316887 20.350000
Au 2.877925 5.755849 18.315000
Au 2.877925 0.000000 22.385000
Au 2.877925 2.877925 22.385000
Au 5.755849 2.877925 22.385000
Au 0.000000 2.877925 22.385000
Au 2.877925 5.755849 22.385000
Au 1.438962 1.438962 24.419999
Au 4.316887 1.438962 24.419999
Au 4.316887 4.316887 24.419999
Au 1.438962 4.316887 24.419999
Au 2.877925 2.877925 26.454999
N 4.024441 1.726483 41.371885
Au 3.979534 0.492275 43.119544
C 4.648851 1.183684 40.168792
H 5.567382 1.741040 39.954811
C 3.782110 1.378265 38.918625
O 4.325260 1.452143 37.802902
C 4.985021 -0.300150 40.362011
H 5.447631 -0.693033 39.453201
H 5.692086 -0.421875 41.188442
H 4.084873 -0.885113 40.577377
N 2.450618 1.445615 39.094149
H 2.094145 1.387536 40.041134
C 1.511522 1.670118 38.000103
H 1.644220 0.884814 37.249811
C 1.768567 2.987893 37.246730
O 1.399707 3.103540 36.071714
C 0.071435 1.624724 38.524331
H -0.623201 1.784087 37.696130
H -0.138784 0.647981 38.970577
H -0.099843 2.402351 39.276160
N 2.388186 3.987991 37.915095
H 2.737934 3.843650 38.862641
C 2.710990 5.241453 37.244288
H 1.800343 5.630643 36.777426
C 3.690817 5.049625 36.072084
O 3.763641 5.911772 35.178031
C 3.251576 6.267758 38.247437
H 3.508318 7.193336 37.726203
H 2.491172 6.492083 39.001109
H 4.143008 5.889334 38.756101
N 4.458459 3.947231 36.086537
H 4.355439 3.297770 36.863482
C 5.288962 3.523945 34.962007
H 5.358905 4.371208 34.280446
C 4.627221 2.385332 34.151343
O 4.558360 2.447011 32.917268
C 6.687596 3.109488 35.441555
H 7.285319 2.746189 34.599768
H 7.197458 3.969099 35.886514
H 6.626500 2.314522 36.192249
N 4.192420 1.307867 34.848476
H 4.249930 1.297721 35.865592
C 3.844663 0.059689 34.175352
H 4.611816 -0.143517 33.420383
C 2.536075 0.100474 33.368889
O 2.351767 -0.739841 32.485620
C 3.815799 -1.098962 35.179744
H 3.581211 -2.027190 34.653284
H 4.790776 -1.207803 35.664369
H 3.057454 -0.939778 35.953528
N 1.634935 1.068278 33.672363
H 1.801614 1.706111 34.448933
C 0.399952 1.206990 32.912387
H 0.122358 0.206209 32.566247
C 0.553772 2.041408 31.620477
O -0.423774 2.214194 30.887853
C -0.728441 1.774211 33.780470
H -1.627618 1.891431 33.172162
H -0.944945 1.092917 34.608718
H -0.453710 2.746877 34.199466
N 1.781975 2.551575 31.359135
H 2.556455 2.355229 31.988420
C 2.054505 3.368757 30.192071
H 1.079888 3.571342 29.730059
C 2.869382 2.639063 29.119599
O 2.856557 1.301180 29.260937
C 2.729757 4.695505 30.589439
H 3.632895 4.456649 31.166728
H 3.054749 5.209832 29.680560
C 1.800268 5.587706 31.422100
H 1.032087 6.032324 30.775684
H 1.273127 4.965432 32.156155
C 2.563055 6.678061 32.185154
H 3.346142 6.197502 32.782331
H 3.057757 7.370456 31.492587
C 1.639507 7.450865 33.126471
H 1.060800 8.222416 32.615736
H 0.949423 6.780533 33.643569
N 2.437513 8.124144 34.214523
H 1.836162 8.657306 34.849204
H 2.945316 7.388835 34.766633
H 3.127702 8.776803 33.830825
O 3.442262 3.202977 28.208570
H 3.838523 2.716887 41.466179
Au 3.979534 0.492275 27.628701
Au 2.877925 2.877925 44.293246
Au 1.438962 4.316887 46.328246
Au 4.316887 4.316887 46.328246
Au 4.316887 1.438962 46.328246
Au 1.438962 1.438962 46.328246
Au 2.877925 5.755849 48.363246
Au 0.000000 2.877925 48.363246
Au 5.755849 2.877925 48.363246
Au 2.877925 2.877925 48.363246
Au 2.877925 0.000000 48.363246
Au 2.877925 5.755849 52.433246
Au 1.438962 4.316887 50.398246
Au 0.000000 2.877925 52.433246
Au 4.316887 4.316887 50.398246
Au 5.755849 2.877925 52.433246
Au 4.316887 1.438962 50.398246
Au 1.438962 1.438962 50.398246
Au 2.877925 2.877925 52.433246
Au 2.877925 0.000000 52.433246
Au 2.877925 5.755849 56.503246
Au 1.438962 4.316887 54.468246
Au 0.000000 2.877925 56.503246
Au 4.316887 4.316887 54.468246
Au 5.755849 2.877925 56.503246
Au 4.316887 1.438962 54.468246
Au 1.438962 1.438962 54.468246
Au 2.877925 2.877925 56.503246
Au 2.877925 0.000000 56.503246
Au 1.438962 4.316887 58.538246
Au 4.316887 4.316887 58.538246
Au 4.316887 1.438962 58.538246
Au 1.438962 1.438962 58.538246
Au 2.877925 5.755849 60.573245
Au 0.000000 2.877925 60.573245
Au 5.755849 2.877925 60.573245
Au 2.877925 2.877925 60.573245
Au 2.877925 0.000000 60.573245
Au 2.877925 5.755849 64.643245
Au 1.438962 4.316887 62.608245
Au 0.000000 2.877925 64.643245
Au 4.316887 4.316887 62.608245
Au 5.755849 2.877925 64.643245
Au 4.316887 1.438962 62.608245
Au 1.438962 1.438962 62.608245
Au 2.877925 2.877925 64.643245
Au 2.877925 0.000000 64.643245
Au 2.877925 5.755849 68.713245
Au 1.438962 4.316887 66.678245
Au 0.000000 2.877925 68.713245
Au 4.316887 4.316887 66.678245
Au 5.755849 2.877925 68.713245
Au 4.316887 1.438962 66.678245
Au 1.438962 1.438962 66.678245
Au 2.877925 2.877925 68.713245
Au 2.877925 0.000000 68.713245
Au 1.438962 4.316887 70.748245
Au 4.316887 4.316887 70.748245
Au 4.316887 1.438962 70.748245
Au 1.438962 1.438962 70.748245
